# This is a dummy CIF file for testing purposes.
data_test
_cell_length_a 5.43
_cell_length_b 5.43
_cell_length_c 5.43
_cell_angle_alpha 90
_cell_angle_beta 90
_cell_angle_gamma 90
_symmetry_space_group_name_H-M 'F d -3 m'
loop_
_atom_site_label
_atom_site_fract_x
_atom_site_fract_y
_atom_site_fract_z
Si 0.00 0.00 0.00
Si 0.25 0.25 0.25
