data_Si
_symmetry_space_group_name_H-M   'F d -3 m'
_cell_length_a   5.43000
_cell_length_b   5.43000
_cell_length_c   5.43000
_cell_angle_alpha   90.00000
_cell_angle_beta   90.00000
_cell_angle_gamma   90.00000
_symmetry_Int_Tables_number   227
_chemical_formula_structural   Si
_chemical_formula_sum   Si8
_cell_volume   160.10643
_cell_formula_units_Z   8
loop_
 _symmetry_equiv_pos_site_id
 _symmetry_equiv_pos_as_xyz
 1  'x, y, z'
 2  'x, -y, -z'
 3  '-x, y, -z'
 4  '-x, -y, z'
 5  'y, x, z'
 6  'y, -x, -z'
 7  '-y, x, -z'
 8  '-y, -x, z'
 9  'z, y, x'
 10  'z, -y, -x'
 11  '-z, y, -x'
 12  '-z, -y, x'
 13  'x, z, y'
 14  'x, -z, -y'
 15  '-x, z, -y'
 16  '-x, -z, y'
loop_
 _atom_site_label
 _atom_site_type_symbol
 _atom_site_fract_x
 _atom_site_fract_y
 _atom_site_fract_z
 _atom_site_occupancy
 Si1 Si 0.00000 0.00000 0.00000 1.0
 Si2 Si 0.25000 0.25000 0.25000 1.0
